examples/data/enwl/lv-network-models/Network_14/Feeder_5/Lines.txt
New Line.LINE1 Bus1=1 Bus2=2 phases=3 Linecode=4c_.5_SAC Length=0.36672 Units=m
New Line.LINE2 Bus1=1 Bus2=3 phases=3 Linecode=4c_.5_SAC Length=0.36672 Units=m
New Line.LINE3 Bus1=2 Bus2=4 phases=3 Linecode=4c_.5_SAC Length=0.0536 Units=m
New Line.LINE4 Bus1=2 Bus2=5 phases=3 Linecode=4c_.5_SAC Length=0.0536 Units=m
New Line.LINE5 Bus1=4 Bus2=6 phases=3 Linecode=4c_.5_SAC Length=0.047413 Units=m
New Line.LINE6 Bus1=4 Bus2=7 phases=3 Linecode=4c_.5_SAC Length=0.047413 Units=m
New Line.LINE7 Bus1=6 Bus2=8 phases=3 Linecode=4c_.5_SAC Length=0.066221 Units=m
New Line.LINE8 Bus1=6 Bus2=9 phases=3 Linecode=4c_.5_SAC Length=0.066221 Units=m
New Line.LINE9 Bus1=8 Bus2=10 phases=3 Linecode=4c_.5_SAC Length=0.063007 Units=m
New Line.LINE10 Bus1=8 Bus2=11 phases=3 Linecode=4c_.5_SAC Length=0.063007 Units=m
New Line.LINE11 Bus1=10 Bus2=12 phases=3 Linecode=4c_.5_SAC Length=0.047518 Units=m
New Line.LINE12 Bus1=10 Bus2=13 phases=3 Linecode=4c_.5_SAC Length=0.047518 Units=m
New Line.LINE13 Bus1=12 Bus2=14 phases=3 Linecode=4c_.5_SAC Length=0.063569 Units=m
New Line.LINE14 Bus1=12 Bus2=15 phases=3 Linecode=4c_.5_SAC Length=0.063569 Units=m
New Line.LINE15 Bus1=14 Bus2=16 phases=3 Linecode=4c_.5_SAC Length=0.049649 Units=m
New Line.LINE16 Bus1=14 Bus2=17 phases=3 Linecode=4c_.5_SAC Length=0.049649 Units=m
New Line.LINE17 Bus1=16 Bus2=18 phases=3 Linecode=4c_.5_SAC Length=0.068768 Units=m
New Line.LINE18 Bus1=16 Bus2=19 phases=3 Linecode=4c_.5_SAC Length=0.068768 Units=m
New Line.LINE19 Bus1=18 Bus2=20 phases=3 Linecode=4c_.5_SAC Length=0.78268 Units=m
New Line.LINE20 Bus1=18 Bus2=21 phases=3 Linecode=4c_.5_SAC Length=0.78268 Units=m
New Line.LINE21 Bus1=20 Bus2=22 phases=3 Linecode=4c_.5_SAC Length=0.14868 Units=m
New Line.LINE22 Bus1=20 Bus2=23 phases=3 Linecode=4c_.5_SAC Length=0.14868 Units=m
New Line.LINE23 Bus1=22 Bus2=24 phases=3 Linecode=4c_.5_SAC Length=0.14959 Units=m
New Line.LINE24 Bus1=22 Bus2=25 phases=3 Linecode=4c_.5_SAC Length=0.14959 Units=m
New Line.LINE25 Bus1=24 Bus2=26 phases=3 Linecode=4c_.5_SAC Length=1.9949 Units=m
New Line.LINE26 Bus1=24 Bus2=27 phases=3 Linecode=4c_.5_SAC Length=1.9949 Units=m
New Line.LINE27 Bus1=26 Bus2=28 phases=3 Linecode=4c_.5_SAC Length=0.048756 Units=m
New Line.LINE28 Bus1=26 Bus2=29 phases=3 Linecode=4c_.5_SAC Length=0.048756 Units=m
New Line.LINE29 Bus1=28 Bus2=30 phases=3 Linecode=4c_.5_SAC Length=0.056937 Units=m
New Line.LINE30 Bus1=28 Bus2=31 phases=3 Linecode=4c_.5_SAC Length=0.056937 Units=m
New Line.LINE31 Bus1=30 Bus2=32 phases=3 Linecode=4c_.5_SAC Length=0.057688 Units=m
New Line.LINE32 Bus1=30 Bus2=33 phases=3 Linecode=4c_.5_SAC Length=0.057688 Units=m
New Line.LINE33 Bus1=32 Bus2=34 phases=3 Linecode=4c_.5_SAC Length=0.061402 Units=m
New Line.LINE34 Bus1=32 Bus2=35 phases=3 Linecode=4c_.5_SAC Length=0.061402 Units=m
New Line.LINE35 Bus1=34 Bus2=36 phases=3 Linecode=4c_.5_SAC Length=0.041232 Units=m
New Line.LINE36 Bus1=34 Bus2=37 phases=3 Linecode=4c_.5_SAC Length=0.041232 Units=m
New Line.LINE37 Bus1=36 Bus2=38 phases=3 Linecode=4c_.5_SAC Length=0.060875 Units=m
New Line.LINE38 Bus1=36 Bus2=39 phases=3 Linecode=4c_.5_SAC Length=0.060875 Units=m
New Line.LINE39 Bus1=38 Bus2=40 phases=3 Linecode=4c_.5_SAC Length=3.3357 Units=m
New Line.LINE40 Bus1=38 Bus2=41 phases=3 Linecode=4c_.5_SAC Length=3.3357 Units=m
New Line.LINE41 Bus1=40 Bus2=42 phases=3 Linecode=4c_.5_SAC Length=2.8143 Units=m
New Line.LINE42 Bus1=40 Bus2=43 phases=3 Linecode=4c_.5_SAC Length=2.8143 Units=m
New Line.LINE43 Bus1=42 Bus2=44 phases=3 Linecode=4c_.5_SAC Length=2.9596 Units=m
New Line.LINE44 Bus1=42 Bus2=45 phases=3 Linecode=4c_.5_SAC Length=2.9596 Units=m
New Line.LINE45 Bus1=44 Bus2=46 phases=3 Linecode=4c_.5_SAC Length=1.0729 Units=m
New Line.LINE46 Bus1=44 Bus2=47 phases=3 Linecode=4c_.5_SAC Length=1.0729 Units=m
New Line.LINE47 Bus1=46 Bus2=48 phases=3 Linecode=4c_.5_SAC Length=0.2522 Units=m
New Line.LINE48 Bus1=46 Bus2=49 phases=3 Linecode=4c_.5_SAC Length=0.2522 Units=m
New Line.LINE49 Bus1=48 Bus2=50 phases=3 Linecode=4c_.5_SAC Length=0.20484 Units=m
New Line.LINE50 Bus1=48 Bus2=51 phases=3 Linecode=4c_.5_SAC Length=0.20484 Units=m
New Line.LINE51 Bus1=50 Bus2=52 phases=3 Linecode=4c_.5_SAC Length=0.32 Units=m
New Line.LINE52 Bus1=50 Bus2=53 phases=3 Linecode=4c_.5_SAC Length=0.32 Units=m
New Line.LINE53 Bus1=52 Bus2=54 phases=3 Linecode=4c_.5_SAC Length=3.6842 Units=m
New Line.LINE54 Bus1=52 Bus2=55 phases=3 Linecode=4c_.5_SAC Length=3.6842 Units=m
New Line.LINE55 Bus1=54 Bus2=56 phases=3 Linecode=4c_.5_SAC Length=1.245 Units=m
New Line.LINE56 Bus1=54 Bus2=57 phases=3 Linecode=4c_.5_SAC Length=1.245 Units=m
New Line.LINE57 Bus1=56 Bus2=58 phases=3 Linecode=4c_.5_SAC Length=4.1722 Units=m
New Line.LINE58 Bus1=56 Bus2=59 phases=3 Linecode=4c_.5_SAC Length=4.1722 Units=m
New Line.LINE59 Bus1=58 Bus2=60 phases=3 Linecode=4c_.5_SAC Length=1.5162 Units=m
New Line.LINE60 Bus1=58 Bus2=61 phases=3 Linecode=4c_.5_SAC Length=1.5162 Units=m
New Line.LINE61 Bus1=60 Bus2=62 phases=3 Linecode=4c_.5_SAC Length=1.1936 Units=m
New Line.LINE62 Bus1=60 Bus2=63 phases=3 Linecode=4c_.5_SAC Length=1.1936 Units=m
New Line.LINE63 Bus1=62 Bus2=64 phases=3 Linecode=4c_.5_SAC Length=0.64212 Units=m
New Line.LINE64 Bus1=62 Bus2=65 phases=3 Linecode=4c_.5_SAC Length=0.64212 Units=m
New Line.LINE65 Bus1=64 Bus2=66 phases=3 Linecode=4c_.5_SAC Length=2.7691 Units=m
New Line.LINE66 Bus1=64 Bus2=67 phases=3 Linecode=4c_.5_SAC Length=2.7691 Units=m
New Line.LINE67 Bus1=66 Bus2=68 phases=3 Linecode=4c_.5_SAC Length=3.5279 Units=m
New Line.LINE68 Bus1=66 Bus2=69 phases=3 Linecode=4c_.5_SAC Length=3.5279 Units=m
New Line.LINE69 Bus1=68 Bus2=70 phases=3 Linecode=4c_.5_SAC Length=3.1863 Units=m
New Line.LINE70 Bus1=68 Bus2=71 phases=3 Linecode=4c_.5_SAC Length=3.1863 Units=m
New Line.LINE71 Bus1=70 Bus2=72 phases=3 Linecode=4c_.5_SAC Length=4.585 Units=m
New Line.LINE72 Bus1=70 Bus2=73 phases=3 Linecode=4c_.5_SAC Length=4.585 Units=m
New Line.LINE73 Bus1=72 Bus2=74 phases=3 Linecode=4c_.5_SAC Length=4.9369 Units=m
New Line.LINE74 Bus1=72 Bus2=75 phases=3 Linecode=4c_.5_SAC Length=4.9369 Units=m
New Line.LINE75 Bus1=74 Bus2=76 phases=3 Linecode=4c_.5_SAC Length=3.0475 Units=m
New Line.LINE76 Bus1=74 Bus2=77 phases=3 Linecode=4c_.5_SAC Length=3.0475 Units=m
New Line.LINE77 Bus1=76 Bus2=78 phases=3 Linecode=4c_.5_SAC Length=2.7607 Units=m
New Line.LINE78 Bus1=76 Bus2=79 phases=3 Linecode=4c_.5_SAC Length=2.7607 Units=m
New Line.LINE79 Bus1=78 Bus2=80 phases=3 Linecode=4c_.5_SAC Length=0.54653 Units=m
New Line.LINE80 Bus1=78 Bus2=81 phases=3 Linecode=4c_.5_SAC Length=0.54653 Units=m
New Line.LINE81 Bus1=80 Bus2=82 phases=3 Linecode=4c_.5_SAC Length=0.28207 Units=m
New Line.LINE82 Bus1=80 Bus2=83 phases=3 Linecode=4c_.5_SAC Length=0.28207 Units=m
New Line.LINE83 Bus1=82 Bus2=84 phases=3 Linecode=4c_.5_SAC Length=0.29843 Units=m
New Line.LINE84 Bus1=82 Bus2=85 phases=3 Linecode=4c_.5_SAC Length=0.29843 Units=m
New Line.LINE85 Bus1=84 Bus2=86 phases=3 Linecode=4c_.5_SAC Length=0.46733 Units=m
New Line.LINE86 Bus1=84 Bus2=87 phases=3 Linecode=4c_.5_SAC Length=0.46733 Units=m
New Line.LINE87 Bus1=86 Bus2=88 phases=3 Linecode=4c_.5_SAC Length=0.41501 Units=m
New Line.LINE88 Bus1=86 Bus2=89 phases=3 Linecode=4c_.5_SAC Length=0.41501 Units=m
New Line.LINE89 Bus1=88 Bus2=90 phases=3 Linecode=4c_.5_SAC Length=0.35102 Units=m
New Line.LINE90 Bus1=88 Bus2=91 phases=3 Linecode=4c_.5_SAC Length=0.35102 Units=m
New Line.LINE91 Bus1=90 Bus2=92 phases=3 Linecode=4c_.5_SAC Length=0.38714 Units=m
New Line.LINE92 Bus1=92 Bus2=93 phases=3 Linecode=4c_.5_SAC Length=3.1185 Units=m
New Line.LINE93 Bus1=93 Bus2=94 phases=3 Linecode=4c_.3_AS Length=2.7363 Units=m
New Line.LINE94 Bus1=93 Bus2=95 phases=3 Linecode=4c_.3_AS Length=2.7363 Units=m
New Line.LINE95 Bus1=94 Bus2=96 phases=3 Linecode=4c_.3_AS Length=1.4575 Units=m
New Line.LINE96 Bus1=94 Bus2=97 phases=3 Linecode=4c_.3_AS Length=1.4575 Units=m
New Line.LINE97 Bus1=96 Bus2=98 phases=3 Linecode=4c_.3_AS Length=3.0914 Units=m
New Line.LINE98 Bus1=96 Bus2=99 phases=3 Linecode=4c_.3_AS Length=3.0914 Units=m
New Line.LINE99 Bus1=98 Bus2=100 phases=3 Linecode=25_SAC_XC Length=14.992 Units=m
New Line.LINE100 Bus1=98 Bus2=101 phases=3 Linecode=25_SAC_XC Length=14.992 Units=m
New Line.LINE101 Bus1=98 Bus2=102 phases=3 Linecode=25_SAC_XC Length=14.992 Units=m
New Line.LINE102 Bus1=98 Bus2=103 phases=3 Linecode=25_SAC_XC Length=14.992 Units=m
New Line.LINE103 Bus1=98 Bus2=104 phases=3 Linecode=25_SAC_XC Length=14.992 Units=m
New Line.LINE104 Bus1=98 Bus2=105 phases=3 Linecode=25_SAC_XC Length=14.992 Units=m
New Line.LINE105 Bus1=98 Bus2=106 phases=3 Linecode=25_SAC_XC Length=14.992 Units=m
New Line.LINE106 Bus1=98 Bus2=107 phases=3 Linecode=25_SAC_XC Length=14.992 Units=m
New Line.LINE107 Bus1=98 Bus2=108 phases=3 Linecode=25_SAC_XC Length=14.992 Units=m
New Line.LINE108 Bus1=98 Bus2=109 phases=3 Linecode=25_SAC_XC Length=14.992 Units=m
New Line.LINE109 Bus1=98 Bus2=110 phases=3 Linecode=25_SAC_XC Length=14.992 Units=m
New Line.LINE110 Bus1=98 Bus2=111 phases=3 Linecode=25_SAC_XC Length=14.992 Units=m
New Line.LINE111 Bus1=98 Bus2=112 phases=3 Linecode=25_SAC_XC Length=14.992 Units=m
New Line.LINE112 Bus1=98 Bus2=113 phases=3 Linecode=25_SAC_XC Length=14.992 Units=m
New Line.LINE113 Bus1=98 Bus2=114 phases=3 Linecode=25_SAC_XC Length=14.992 Units=m
New Line.LINE114 Bus1=98 Bus2=115 phases=3 Linecode=25_SAC_XC Length=14.992 Units=m
New Line.LINE115 Bus1=98 Bus2=116 phases=3 Linecode=25_SAC_XC Length=14.992 Units=m
New Line.LINE116 Bus1=98 Bus2=117 phases=3 Linecode=25_SAC_XC Length=14.992 Units=m
New Line.LINE117 Bus1=98 Bus2=118 phases=3 Linecode=25_SAC_XC Length=14.992 Units=m
New Line.LINE118 Bus1=98 Bus2=119 phases=3 Linecode=25_SAC_XC Length=14.992 Units=m
New Line.LINE119 Bus1=98 Bus2=120 phases=3 Linecode=25_SAC_XC Length=14.992 Units=m
New Line.LINE120 Bus1=98 Bus2=121 phases=3 Linecode=25_SAC_XC Length=14.992 Units=m
New Line.LINE121 Bus1=98 Bus2=122 phases=3 Linecode=25_SAC_XC Length=14.992 Units=m
New Line.LINE122 Bus1=98 Bus2=123 phases=3 Linecode=25_SAC_XC Length=14.992 Units=m
New Line.LINE123 Bus1=98 Bus2=124 phases=3 Linecode=25_SAC_XC Length=14.992 Units=m
New Line.LINE124 Bus1=98 Bus2=125 phases=3 Linecode=25_SAC_XC Length=14.992 Units=m
New Line.LINE125 Bus1=98 Bus2=126 phases=3 Linecode=25_SAC_XC Length=14.992 Units=m
New Line.LINE126 Bus1=98 Bus2=127 phases=3 Linecode=25_SAC_XC Length=14.992 Units=m
New Line.LINE127 Bus1=98 Bus2=128 phases=3 Linecode=25_SAC_XC Length=14.992 Units=m
New Line.LINE128 Bus1=98 Bus2=129 phases=3 Linecode=25_SAC_XC Length=14.992 Units=m
New Line.LINE129 Bus1=98 Bus2=130 phases=3 Linecode=25_SAC_XC Length=14.992 Units=m
New Line.LINE130 Bus1=98 Bus2=131 phases=3 Linecode=25_SAC_XC Length=14.992 Units=m
New Line.LINE131 Bus1=98 Bus2=132 phases=3 Linecode=25_SAC_XC Length=14.992 Units=m
New Line.LINE132 Bus1=98 Bus2=133 phases=3 Linecode=25_SAC_XC Length=14.992 Units=m
New Line.LINE133 Bus1=98 Bus2=134 phases=3 Linecode=25_SAC_XC Length=14.992 Units=m
New Line.LINE134 Bus1=98 Bus2=135 phases=3 Linecode=25_SAC_XC Length=14.992 Units=m
New Line.LINE135 Bus1=98 Bus2=136 phases=3 Linecode=25_SAC_XC Length=14.992 Units=m
New Line.LINE136 Bus1=98 Bus2=137 phases=3 Linecode=25_SAC_XC Length=14.992 Units=m
New Line.LINE137 Bus1=98 Bus2=138 phases=3 Linecode=25_SAC_XC Length=14.992 Units=m
New Line.LINE138 Bus1=98 Bus2=139 phases=3 Linecode=25_SAC_XC Length=14.992 Units=m
New Line.LINE139 Bus1=98 Bus2=140 phases=3 Linecode=25_SAC_XC Length=14.992 Units=m
New Line.LINE140 Bus1=98 Bus2=141 phases=3 Linecode=25_SAC_XC Length=14.992 Units=m
New Line.LINE141 Bus1=98 Bus2=142 phases=3 Linecode=25_SAC_XC Length=14.992 Units=m
New Line.LINE142 Bus1=98 Bus2=143 phases=3 Linecode=25_SAC_XC Length=14.992 Units=m
New Line.LINE143 Bus1=98 Bus2=144 phases=3 Linecode=25_SAC_XC Length=14.992 Units=m
